36

C   -3.537813408741   -1.197358030063   -0.000002511704
C   -2.231721679129   -1.753490196626   -0.000001772453
C   -1.118477290222   -0.878767917658    0.000001265190
C   -1.320247312148    0.529252466329    0.000000457025
C   -2.634416234545    1.056069766015    0.000000097670
C   -3.731700538156    0.155505027496   -0.000002077321
C    0.201805499992   -1.408037184898    0.000001446898
C   -0.201806292778    1.408037349417    0.000001282225
C    1.118477332854    0.878769172261    0.000000877018
C    1.320247659437   -0.529254260666    0.000001604289
C    2.231723966627    1.753494083008    0.000000932412
C    2.000541632753    3.154097488665   -0.000000072335
C    0.731966234306    3.662633476019    0.000000027255
C   -0.402623739305    2.809526817525    0.000000186416
C   -1.731199729033    3.309571026561   -0.000000361845
C   -2.805853538980    2.465217386849   -0.000000063657
H   -3.812608192132    2.865480442899   -0.000001192764
H   -1.881839004306    4.382460264513   -0.000001155151
H   -4.387807398525   -1.869130579848   -0.000003746262
H   -4.736165358533    0.561485278361   -0.000003308815
H    2.854402131585    3.820953899457   -0.000000862755
H    0.575137286875    4.734633374203   -0.000000504648
C   -2.000546506060   -3.154091856127   -0.000002279359
C   -0.731972726882   -3.662630167661   -0.000000156304
C    0.402622037714   -2.809527991036    0.000001515518
H   -2.854403173448   -3.820950509255   -0.000003688287
H   -0.575142351200   -4.734630877899   -0.000000422195
C    1.731197118532   -3.309575472023    0.000002511575
C    2.805853341483   -2.465222519861    0.000001131455
C    2.634420155016   -1.056072829129    0.000000719652
H    1.881836196523   -4.382466385643    0.000002257284
H    3.812610671633   -2.865484720669    0.000000087528
C    3.537817647340    1.197360918653   -0.000001949896
H    4.387816255208    1.869132917489   -0.000004287125
C    3.731705410819   -0.155506362361   -0.000001205174
H    4.736174356259   -0.561485374117   -0.000002281888
